Version 4
SHEET 1 880 680
WIRE -192 -192 -352 -192
WIRE -352 -160 -352 -192
WIRE 448 -160 336 -160
WIRE 800 -128 704 -128
WIRE 704 -32 704 -128
WIRE 496 -16 64 -16
WIRE 0 0 -80 0
WIRE 448 0 32 0
WIRE -80 16 -80 0
WIRE 496 48 496 -16
WIRE 544 48 496 48
WIRE 656 48 624 48
WIRE 64 64 64 -16
WIRE 96 64 64 64
WIRE 32 96 32 0
WIRE 96 96 32 96
WIRE 336 96 336 -160
WIRE 336 96 304 96
WIRE 0 128 0 0
WIRE 96 128 0 128
WIRE 448 128 448 0
WIRE 704 128 704 64
WIRE 704 128 448 128
WIRE -192 160 -192 -192
WIRE 96 160 -192 160
WIRE 96 192 -128 192
WIRE 464 192 304 192
WIRE 704 208 704 128
WIRE 96 224 -80 224
WIRE 416 224 304 224
WIRE -80 240 -80 224
WIRE 352 256 304 256
WIRE 336 288 304 288
WIRE 544 288 528 288
WIRE 656 288 624 288
WIRE -128 336 -128 192
WIRE -80 336 -80 320
WIRE -80 336 -128 336
WIRE 336 336 336 288
WIRE 416 336 416 304
WIRE 416 336 336 336
WIRE -80 352 -80 336
WIRE 352 352 352 256
WIRE 528 352 528 288
WIRE 528 352 352 352
WIRE 416 384 416 336
WIRE 704 384 704 304
WIRE 704 384 416 384
WIRE 800 384 800 -48
WIRE 800 384 704 384
WIRE 416 416 416 384
FLAG -80 96 0
FLAG 416 416 0
FLAG -80 352 0
FLAG 544 192 0
FLAG -352 -80 0
FLAG 448 -80 0
SYMBOL AutoGenerated\\2EDS8265H 192 176 R0
SYMATTR InstName U1
SYMBOL nmos 656 -32 R0
SYMATTR InstName M1
SYMATTR Value IRF530
SYMBOL nmos 656 208 R0
SYMATTR InstName M2
SYMATTR Value IRF530
SYMBOL voltage -80 0 R0
WINDOW 123 0 0 Left 0
WINDOW 39 0 0 Left 0
SYMATTR InstName V1
SYMATTR Value 12
SYMBOL voltage 416 208 R0
WINDOW 123 0 0 Left 0
WINDOW 39 0 0 Left 0
SYMATTR InstName V2
SYMATTR Value 12
SYMBOL res 640 32 R90
WINDOW 0 0 56 VBottom 2
WINDOW 3 32 56 VTop 2
SYMATTR InstName R1
SYMATTR Value 22
SYMBOL res 640 272 R90
WINDOW 0 0 56 VBottom 2
WINDOW 3 32 56 VTop 2
SYMATTR InstName R2
SYMATTR Value 22
SYMBOL voltage -80 224 R0
WINDOW 123 0 0 Left 0
WINDOW 39 0 0 Left 0
SYMATTR InstName V3
SYMATTR Value 3.3
SYMBOL res 560 176 R90
WINDOW 0 0 56 VBottom 2
WINDOW 3 32 56 VTop 2
SYMATTR InstName R3
SYMATTR Value 50k
SYMBOL voltage 800 -144 R0
WINDOW 123 0 0 Left 0
WINDOW 39 0 0 Left 0
SYMATTR InstName V4
SYMATTR Value 48
SYMBOL voltage -352 -176 R0
WINDOW 3 6 -47 Left 2
WINDOW 123 0 0 Left 0
WINDOW 39 0 0 Left 0
SYMATTR InstName V5
SYMATTR Value PULSE(0 3.3 0.5u 1n 1n 0.5u 1u)
SYMBOL voltage 448 -176 R0
WINDOW 3 -35 -31 Left 2
WINDOW 123 0 0 Left 0
WINDOW 39 0 0 Left 0
SYMATTR InstName V6
SYMATTR Value PULSE(3.3 0 0.5u 1n 1n 0.5u 1u)
TEXT -386 440 Left 2 !.tran 100E-3
TEXT 64 440 Left 2 !.Include 2EDS8265H.sub
TEXT 64 472 Left 2 !.Include BaseComps_PSpice.lib
