Version 4
SHEET 1 2208 904
WIRE 944 -640 880 -640
WIRE 1072 -640 1008 -640
WIRE 1216 -640 1072 -640
WIRE 1456 -640 1216 -640
WIRE 2016 -640 1904 -640
WIRE 2096 -640 2016 -640
WIRE 1072 -624 1072 -640
WIRE 1456 -624 1456 -640
WIRE 1520 -624 1456 -624
WIRE 1904 -624 1904 -640
WIRE 1904 -624 1776 -624
WIRE 1920 -624 1904 -624
WIRE 1216 -608 1216 -640
WIRE 256 -592 224 -592
WIRE 224 -560 224 -592
WIRE 336 -560 224 -560
WIRE 400 -560 336 -560
WIRE 512 -560 480 -560
WIRE 624 -560 576 -560
WIRE 336 -528 336 -560
WIRE 880 -512 880 -560
WIRE 1072 -512 1072 -560
WIRE 1072 -512 880 -512
WIRE 1216 -512 1216 -544
WIRE 1216 -512 1072 -512
WIRE 1312 -512 1216 -512
WIRE 1648 -512 1648 -528
WIRE 1648 -512 1312 -512
WIRE 1920 -512 1920 -560
WIRE 1968 -512 1920 -512
WIRE 2016 -512 2016 -560
WIRE 2016 -512 1968 -512
WIRE 1312 -496 1312 -512
WIRE 1968 -496 1968 -512
WIRE 624 -464 624 -480
WIRE 336 -448 336 -464
WIRE -32 -400 -192 -400
WIRE 96 -400 -32 -400
WIRE 384 -400 96 -400
WIRE 512 -400 384 -400
WIRE 944 -400 880 -400
WIRE 1072 -400 1008 -400
WIRE 1216 -400 1072 -400
WIRE 1456 -400 1216 -400
WIRE 384 -384 384 -400
WIRE 384 -384 320 -384
WIRE 432 -384 384 -384
WIRE 512 -384 512 -400
WIRE 640 -384 512 -384
WIRE 1072 -384 1072 -400
WIRE 320 -368 320 -384
WIRE 1216 -368 1216 -400
WIRE 1456 -368 1456 -400
WIRE 1504 -368 1456 -368
WIRE 1824 -368 1760 -368
WIRE 1904 -368 1824 -368
WIRE 2016 -368 1904 -368
WIRE 432 -352 432 -384
WIRE -192 -320 -192 -400
WIRE -32 -304 -32 -400
WIRE 640 -304 512 -304
WIRE 1824 -288 1824 -304
WIRE 1856 -288 1824 -288
WIRE 1904 -288 1856 -288
WIRE 320 -272 320 -288
WIRE 400 -272 320 -272
WIRE 432 -272 432 -288
WIRE 432 -272 400 -272
WIRE 880 -272 880 -320
WIRE 1072 -272 1072 -320
WIRE 1072 -272 880 -272
WIRE 1216 -272 1216 -304
WIRE 1216 -272 1072 -272
WIRE 1312 -272 1216 -272
WIRE 1408 -272 1312 -272
WIRE 1312 -256 1312 -272
WIRE 96 -240 96 -400
WIRE 400 -240 400 -272
WIRE 1856 -240 1856 -288
WIRE 1408 -224 1408 -272
WIRE 1632 -224 1632 -272
WIRE 1632 -224 1408 -224
WIRE 400 -160 400 -176
WIRE 512 -160 512 -304
WIRE 512 -160 400 -160
WIRE 960 -144 896 -144
WIRE 1088 -144 1024 -144
WIRE 1232 -144 1088 -144
WIRE 1392 -144 1232 -144
WIRE 1424 -144 1392 -144
WIRE 1088 -128 1088 -144
WIRE 1392 -128 1392 -144
WIRE 1392 -128 1376 -128
WIRE 512 -112 512 -160
WIRE 1232 -112 1232 -144
WIRE 304 -32 272 -32
WIRE 336 -32 304 -32
WIRE 448 -32 416 -32
WIRE 464 -32 448 -32
WIRE 896 -16 896 -64
WIRE 1088 -16 1088 -64
WIRE 1088 -16 896 -16
WIRE 1232 -16 1232 -48
WIRE 1232 -16 1088 -16
WIRE 1376 -16 1376 -48
WIRE 1376 -16 1232 -16
WIRE 1232 0 1232 -16
WIRE 512 32 512 -16
WIRE 608 32 512 32
WIRE 736 32 736 -16
WIRE 736 32 688 32
WIRE 304 48 304 -32
WIRE 336 48 304 48
WIRE 448 48 448 -32
WIRE 448 48 400 48
WIRE 736 48 736 32
WIRE -192 112 -192 -240
WIRE -32 112 -32 -240
WIRE -32 112 -192 112
WIRE 160 112 -32 112
WIRE 512 112 160 112
WIRE 160 128 160 112
WIRE 736 128 736 112
WIRE 1200 160 1184 160
WIRE 1056 224 944 224
WIRE 1200 224 1200 160
WIRE 1200 224 1056 224
WIRE 1312 224 1200 224
WIRE 944 240 944 224
WIRE 1312 240 1312 224
WIRE -352 272 -480 272
WIRE -336 272 -352 272
WIRE -160 288 -160 272
WIRE 96 288 96 -160
WIRE 96 288 -160 288
WIRE -480 304 -480 272
WIRE -480 304 -528 304
WIRE -432 304 -480 304
WIRE 1056 304 1056 224
WIRE -528 320 -528 304
WIRE -160 336 -160 288
WIRE 944 368 944 320
WIRE 944 368 512 368
WIRE -528 400 -528 384
WIRE -480 400 -528 400
WIRE -432 400 -432 384
WIRE -432 400 -480 400
WIRE -352 400 -352 272
WIRE -320 400 -352 400
WIRE 32 432 0 432
WIRE 752 432 736 432
WIRE -480 464 -480 400
WIRE -320 464 -480 464
WIRE 512 512 512 368
WIRE 544 512 512 512
WIRE 752 512 752 432
WIRE 752 512 736 512
WIRE -464 528 -480 528
WIRE -320 528 -464 528
WIRE -480 544 -480 528
WIRE -464 560 -464 528
WIRE -448 560 -464 560
WIRE 48 560 0 560
WIRE -320 592 -416 592
WIRE 1056 592 1056 384
WIRE 1056 592 928 592
WIRE 1072 592 1056 592
WIRE 1152 592 1072 592
WIRE 1248 592 1232 592
WIRE 1312 592 1312 320
WIRE 544 608 480 608
WIRE 752 608 736 608
WIRE 784 608 752 608
WIRE 1072 624 1072 592
WIRE -480 640 -480 608
WIRE 752 656 752 608
WIRE 1312 656 1312 592
WIRE 1312 656 1104 656
WIRE 1312 688 1312 656
WIRE -160 704 -160 656
WIRE 864 704 864 608
WIRE -416 752 -416 592
WIRE -336 752 -416 752
WIRE -240 752 -256 752
WIRE 752 768 752 736
WIRE -416 784 -416 752
WIRE 480 816 480 608
WIRE 928 816 928 592
WIRE 928 816 480 816
WIRE 1072 848 1072 688
WIRE 1312 848 1312 768
WIRE -416 864 -416 848
FLAG 160 128 0
FLAG 272 -32 pwm
IOPIN 272 -32 In
FLAG 32 432 pwm
IOPIN 32 432 Out
FLAG 736 128 0
FLAG 48 560 Ifb
IOPIN 48 560 Out
FLAG 736 -16 Ifb
IOPIN 736 -16 In
FLAG 1312 -256 0
FLAG -160 704 0
FLAG -480 640 0
FLAG -448 560 Vref
IOPIN -448 560 Out
FLAG -240 752 Vref
IOPIN -240 752 In
FLAG -416 864 0
FLAG -336 272 Vfb
IOPIN -336 272 Out
FLAG 736 432 Vref
IOPIN 736 432 In
FLAG 752 768 0
FLAG 864 704 Vfb
IOPIN 864 704 In
FLAG 1072 848 0
FLAG 1312 848 0
FLAG 1184 160 12V
IOPIN 1184 160 In
FLAG 624 -464 0
FLAG 336 -448 0
FLAG 256 -592 Vaux
IOPIN 256 -592 Out
FLAG -160 272 Vaux
IOPIN -160 272 In
FLAG 1232 0 0
FLAG 1312 -496 0
FLAG 1424 -144 12V
IOPIN 1424 -144 Out
FLAG 1968 -496 0
FLAG 1856 -240 0
FLAG 2096 -640 3.3V
IOPIN 2096 -640 Out
FLAG 2016 -368 12V+
IOPIN 2016 -368 Out
SYMBOL diode 416 -176 R180
WINDOW 0 24 64 Left 2
WINDOW 3 24 0 Left 2
SYMATTR InstName D1
SYMATTR Value MURS320
SYMBOL voltage -192 -336 R0
WINDOW 123 0 0 Left 0
WINDOW 39 0 0 Left 0
SYMATTR InstName V1
SYMATTR Value 24V
SYMBOL res 304 -384 R0
SYMATTR InstName R1
SYMATTR Value 22k
SYMATTR SpiceLine pwr=2W
SYMBOL ind2 624 -288 M180
WINDOW 0 -54 69 Left 2
WINDOW 3 -65 46 Left 2
SYMATTR InstName L1
SYMATTR Value 22µ
SYMATTR Type ind
SYMATTR SpiceLine Ipk=4.97
SYMBOL ind2 896 -416 M0
WINDOW 0 -38 38 Left 2
WINDOW 3 -69 76 Left 2
SYMATTR InstName L2
SYMATTR Value 25µ
SYMATTR Type ind
SYMATTR SpiceLine Ipk=4.97
SYMBOL schottky 944 -384 R270
WINDOW 0 32 32 VTop 2
WINDOW 3 91 37 VBottom 2
SYMATTR InstName D2
SYMATTR Value MBR20100CT
SYMBOL cap -48 -304 R0
WINDOW 3 24 57 Left 2
SYMATTR Value 35µ
SYMATTR InstName C1
SYMATTR SpiceLine V=50 Irms=0 Rser=0.00803494 Lser=1000n
SYMATTR Description Polarized Capacitor
SYMATTR Type polcap
SYMBOL Optos\\PC817A 640 560 R0
SYMATTR InstName U1
SYMBOL References\\LT1009 1072 656 R0
SYMATTR InstName U2
SYMBOL polcap 1056 -384 R0
SYMATTR InstName C2
SYMATTR Value 100µ
SYMBOL polcap 1200 -368 R0
SYMATTR InstName C3
SYMATTR Value 100µ
SYMBOL nmos 464 -112 R0
SYMATTR InstName M1
SYMATTR Value IRFZ44N
SYMBOL res 432 -48 R90
WINDOW 0 0 56 VBottom 2
WINDOW 3 32 56 VTop 2
SYMATTR InstName R2
SYMATTR Value 22
SYMBOL res 496 16 R0
SYMATTR InstName R3
SYMATTR Value 0.2
SYMBOL res 704 16 R90
WINDOW 0 0 56 VBottom 2
WINDOW 3 32 56 VTop 2
SYMATTR InstName R4
SYMATTR Value 1k
SYMBOL cap 720 48 R0
SYMATTR InstName C4
SYMATTR Value 470p
SYMBOL cap -464 608 R180
WINDOW 0 24 56 Left 2
WINDOW 3 24 8 Left 2
SYMATTR InstName C5
SYMATTR Value 1µ
SYMBOL cap -432 784 R0
SYMATTR InstName C6
SYMATTR Value 1n
SYMBOL res -240 736 R90
WINDOW 0 0 56 VBottom 2
WINDOW 3 32 56 VTop 2
SYMATTR InstName R5
SYMATTR Value 13k
SYMBOL res -448 288 R0
SYMATTR InstName R6
SYMATTR Value 10k
SYMBOL polcap -512 384 R180
WINDOW 0 24 57 Left 2
WINDOW 3 24 8 Left 2
SYMATTR InstName C7
SYMATTR Value 10n
SYMBOL res 880 592 R90
WINDOW 0 0 56 VBottom 2
WINDOW 3 32 56 VTop 2
SYMATTR InstName R7
SYMATTR Value 4.99k
SYMBOL res 768 752 R180
WINDOW 0 36 76 Left 2
WINDOW 3 36 40 Left 2
SYMATTR InstName R8
SYMATTR Value 2.1k
SYMBOL res 928 224 R0
SYMATTR InstName R9
SYMATTR Value 10k
SYMBOL res 1296 224 R0
SYMATTR InstName R10
SYMATTR Value 76k
SYMBOL res 1248 576 R90
WINDOW 0 0 56 VBottom 2
WINDOW 3 32 56 VTop 2
SYMATTR InstName R11
SYMATTR Value 33k
SYMBOL cap 1312 576 R90
WINDOW 0 0 32 VBottom 2
WINDOW 3 32 32 VTop 2
SYMATTR InstName C8
SYMATTR Value 20n
SYMBOL res 1296 672 R0
SYMATTR InstName R12
SYMATTR Value 20k
SYMBOL diode 400 32 R90
WINDOW 0 0 32 VBottom 2
WINDOW 3 32 32 VTop 2
SYMATTR InstName D3
SYMATTR Value 1N4148
SYMBOL res 1040 288 R0
SYMATTR InstName R13
SYMATTR Value 1k
SYMBOL polcap 448 -288 R180
WINDOW 0 -26 63 Left 2
WINDOW 3 -37 4 Left 2
SYMATTR InstName C9
SYMATTR Value 10n
SYMATTR SpiceLine V=1kV
SYMBOL PowerProducts\\LT1245 -160 496 R0
SYMATTR InstName U3
SYMBOL ind2 608 -576 R0
WINDOW 3 38 74 Left 2
SYMATTR Value 22µ
SYMATTR InstName L3
SYMATTR Type ind
SYMATTR SpiceLine Ipk=4.97
SYMBOL schottky 576 -576 R90
WINDOW 0 0 32 VBottom 2
WINDOW 3 32 32 VTop 2
SYMATTR InstName D4
SYMATTR Value BAT54
SYMATTR Description Diode
SYMATTR Type diode
SYMBOL res 496 -576 R90
WINDOW 0 0 56 VBottom 2
WINDOW 3 32 56 VTop 2
SYMATTR InstName R14
SYMATTR Value 100
SYMATTR SpiceLine pwr=2W
SYMBOL cap 352 -464 R180
WINDOW 0 24 56 Left 2
WINDOW 3 24 8 Left 2
SYMATTR InstName C10
SYMATTR Value 120µ
SYMATTR SpiceLine V=35V
SYMBOL res 80 -256 R0
SYMATTR InstName R15
SYMATTR Value 7.5k
SYMATTR SpiceLine pwr=2W
SYMBOL ind2 912 -160 M0
WINDOW 0 -38 38 Left 2
WINDOW 3 -69 76 Left 2
SYMATTR InstName L4
SYMATTR Value 22µ
SYMATTR Type ind
SYMATTR SpiceLine Ipk=4.97
SYMBOL schottky 960 -128 R270
WINDOW 0 32 32 VTop 2
WINDOW 3 90 30 VBottom 2
SYMATTR InstName D5
SYMATTR Value MBR20100CT
SYMBOL polcap 1072 -128 R0
SYMATTR InstName C11
SYMATTR Value 100µ
SYMBOL polcap 1216 -112 R0
SYMATTR InstName C12
SYMATTR Value 100µ
SYMBOL ind2 896 -656 M0
WINDOW 0 -38 38 Left 2
WINDOW 3 -69 76 Left 2
SYMATTR InstName L5
SYMATTR Value 5µ
SYMATTR Type ind
SYMATTR SpiceLine Ipk=1.61
SYMBOL schottky 944 -624 R270
WINDOW 0 32 32 VTop 2
WINDOW 3 91 37 VBottom 2
SYMATTR InstName D6
SYMATTR Value MBR20100CT
SYMBOL polcap 1056 -624 R0
SYMATTR InstName C14
SYMATTR Value 100µ
SYMBOL polcap 1200 -608 R0
SYMATTR InstName C15
SYMATTR Value 100µ
SYMBOL res 1360 -144 R0
SYMATTR InstName R16
SYMATTR Value 24
SYMBOL PowerProducts\\LT1117-3.3 1648 -624 R0
SYMATTR InstName U4
SYMBOL PowerProducts\\LT1085-12 1632 -368 R0
SYMATTR InstName U5
SYMBOL res 1888 -384 R0
SYMATTR InstName R17
SYMATTR Value 24
SYMBOL res 2000 -656 R0
SYMATTR InstName R18
SYMATTR Value 6.6
SYMBOL polcap 1904 -624 R0
SYMATTR InstName C13
SYMATTR Value 100µ
SYMBOL polcap 1808 -368 R0
SYMATTR InstName C16
SYMATTR Value 100µ
TEXT 656 -424 Left 2 !K1 L1 L2 L3 L4 L5 1
TEXT -584 888 Left 2 !.tran 100E-3
TEXT 288 -888 Left 5 ;EE19/16 AL=1350nH Ae:22.6 mm^2
TEXT 584 -824 Left 5 ;L1 L2 1:1\nL1 L4 1:1\nL1 L5 3:1
LINE Normal 752 -272 752 -384 2
LINE Normal 752 -272 752 -272 2
LINE Normal 752 -272 752 -272 2
LINE Normal 768 -272 768 -384 2
LINE Normal 768 -272 768 -272 2
