Version 4
SHEET 1 968 680
WIRE 192 -160 96 -160
WIRE 240 -160 192 -160
WIRE 336 -160 320 -160
WIRE 96 -144 96 -160
WIRE 96 -144 32 -144
WIRE 128 -144 96 -144
WIRE 336 -128 336 -160
WIRE 32 -32 32 -80
WIRE 80 -32 32 -32
WIRE 128 -32 128 -80
WIRE 128 -32 80 -32
WIRE 192 -16 192 -160
WIRE 272 -16 192 -16
WIRE 400 -16 352 -16
WIRE 480 -16 400 -16
WIRE 624 -16 544 -16
WIRE 720 -16 624 -16
WIRE 816 -16 720 -16
WIRE 720 32 720 -16
WIRE 816 32 816 -16
WIRE 192 48 192 -16
WIRE 624 80 624 -16
WIRE 400 128 400 -16
WIRE 400 128 320 128
WIRE 720 160 720 96
WIRE 816 160 816 112
WIRE 624 192 624 160
WIRE 624 192 320 192
WIRE 624 240 624 192
WIRE 368 256 320 256
WIRE 368 272 368 256
WIRE 192 352 192 336
FLAG 192 352 0
FLAG 368 416 0
FLAG 624 320 0
FLAG 720 160 0
FLAG 336 -128 0
FLAG 80 -32 0
FLAG 816 160 0
FLAG 816 -16 48V
IOPIN 816 -16 Out
SYMBOL PowerProducts\\LT1170HV 192 192 R0
SYMATTR InstName U1
SYMBOL res 352 256 R0
SYMATTR InstName R1
SYMATTR Value 3k
SYMBOL cap 352 352 R0
SYMATTR InstName C1
SYMATTR Value 1.5µ
SYMBOL res 608 64 R0
SYMATTR InstName R2
SYMATTR Value 75.7k
SYMBOL res 608 224 R0
SYMATTR InstName R3
SYMATTR Value 2k
SYMBOL ind2 256 0 R270
WINDOW 0 32 56 VTop 2
WINDOW 3 5 56 VBottom 2
SYMATTR InstName L1
SYMATTR Value 100µ
SYMATTR Type ind
SYMBOL schottky 480 0 R270
WINDOW 0 32 32 VTop 2
WINDOW 3 0 32 VBottom 2
SYMATTR InstName D1
SYMATTR Value MBR20100CT
SYMATTR Description Diode
SYMATTR Type diode
SYMBOL voltage 224 -160 R270
WINDOW 0 32 56 VTop 2
WINDOW 3 -32 56 VBottom 2
WINDOW 123 0 0 Left 0
WINDOW 39 0 0 Left 0
SYMATTR InstName V1
SYMATTR Value 24
SYMBOL cap 16 -144 R0
SYMATTR InstName C3
SYMATTR Value 0.1µ
SYMBOL cap 112 -144 R0
SYMATTR InstName C4
SYMATTR Value 56µ
SYMBOL res 800 16 R0
SYMATTR InstName R4
SYMATTR Value 24
SYMBOL polcap 704 32 R0
WINDOW 3 17 54 Left 2
SYMATTR InstName C5
SYMATTR Value 1200µ
SYMATTR SpiceLine V=60
TEXT 62 392 Left 2 !.tran 100E-3
